Circuit: * C:\Users\duzun\OneDrive\Masaüstü\Draft1.asc

.OP point found by inspection.

Date: Mon Sep 20 13:34:46 2021
Total elapsed time: 0.060 seconds.

tnom = 27
temp = 27
method = modified trap
totiter = 2188
traniter = 2188
tranpoints = 1095
accept = 1082
rejected = 13
matrix size = 3
fillins = 0
solver = Normal
Matrix Compiler1: 50 bytes object code size  0.1/0.1/[0.1]
Matrix Compiler2: 175 bytes object code size  0.1/0.1/[0.1]

