Circuit: * C:\Users\duzun\OneDrive\Masaüstü\Fall 2T1\ECE 331 Analog Electronics\Lab 1\Circuits\PMOS max swing\Lab1_P3_PMOS_swing.asc

Model "ald1102": Oxide thickness thinner than recommended for a level 2 MOSFET.
Instance "m1": Length shorter than recommended for a level 2 MOSFET.

Date: Mon Oct 04 13:43:14 2021
Total elapsed time: 0.118 seconds.

tnom = 27
temp = 27
method = trap
totiter = 10009
traniter = 0
tranpoints = 0
accept = 0
rejected = 0
matrix size = 7
fillins = 0
solver = Normal
Matrix Compiler1: 268 bytes object code size  0.1/0.0/[0.0]
Matrix Compiler2: 549 bytes object code size  0.0/0.1/[0.0]

