Circuit: * C:\Users\duzun\OneDrive\Masaüstü\Fall 2T1\ECE 331 Analog Electronics\Lab 2\Circuits\Draft1.asc

WARNING: Node VIP is floating.

Model "ald1101": Oxide thickness thinner than recommended for a level 2 MOSFET.
Instance "m3": Length shorter than recommended for a level 2 MOSFET.
Instance "m4": Length shorter than recommended for a level 2 MOSFET.
Instance "m6": Length shorter than recommended for a level 2 MOSFET.
Instance "m5": Length shorter than recommended for a level 2 MOSFET.
Model "ald1102": Oxide thickness thinner than recommended for a level 2 MOSFET.
Instance "m1": Length shorter than recommended for a level 2 MOSFET.
Instance "m2": Length shorter than recommended for a level 2 MOSFET.
No AC stimulus found:
     Set the value of a current or voltage source to "AC 1."
     to make it behave as a signal generator for AC analysis.
Direct Newton iteration for .op point succeeded.

Date: Sat Nov 20 22:16:16 2021
Total elapsed time: 0.048 seconds.

tnom = 27
temp = 27
method = trap
totiter = 24
traniter = 0
tranpoints = 0
accept = 0
rejected = 0
matrix size = 19
fillins = 10
solver = Normal
Matrix Compiler1:     100 opcodes
Matrix Compiler2: 1.85 KB object code size
