Circuit: * C:\Users\duzun\OneDrive\Masaüstü\Fall 2T1\ECE 331 Analog Electronics\Lab 2\Circuits\l3_p2.asc

Model "ald1102": Oxide thickness thinner than recommended for a level 2 MOSFET.
Instance "m2": Length shorter than recommended for a level 2 MOSFET.
Instance "m1": Length shorter than recommended for a level 2 MOSFET.
Direct Newton iteration for .op point succeeded.

Date: Mon Nov 01 13:53:25 2021
Total elapsed time: 0.107 seconds.

tnom = 27
temp = 27
method = modified trap
totiter = 6165
traniter = 6132
tranpoints = 2273
accept = 1626
rejected = 647
matrix size = 38
fillins = 20
solver = Normal
Matrix Compiler1: 2.94 KB object code size  0.7/0.3/[0.2]
Matrix Compiler2: off  [0.3]/0.5/0.3

