Circuit: * C:\Users\duzun\OneDrive\Masaüstü\Fall 2T1\ECE 331 Analog Electronics\Lab 2\Circuits\NMOS_cm_wo_ct.asc

Model "ald1101": Oxide thickness thinner than recommended for a level 2 MOSFET.
Instance "m2": Length shorter than recommended for a level 2 MOSFET.
Instance "m1": Length shorter than recommended for a level 2 MOSFET.

Date: Mon Oct 18 13:14:53 2021
Total elapsed time: 0.195 seconds.

tnom = 27
temp = 27
method = trap
totiter = 1008
traniter = 0
tranpoints = 0
accept = 0
rejected = 0
matrix size = 9
fillins = 0
solver = Normal
Matrix Compiler1: 474 bytes object code size  0.4/0.2/[0.2]
Matrix Compiler2: 661 bytes object code size  0.3/0.3/[0.2]

