Circuit: * C:\Users\duzun\OneDrive\Masaüstü\Fall 2T1\ECE 331 Analog Electronics\Lab 2\Circuits\NMOS_cm_w_ct.asc

Model "ald1101": Oxide thickness thinner than recommended for a level 2 MOSFET.
Instance "m3": Length shorter than recommended for a level 2 MOSFET.
Instance "m2": Length shorter than recommended for a level 2 MOSFET.
Instance "m1": Length shorter than recommended for a level 2 MOSFET.

Date: Mon Oct 18 13:13:50 2021
Total elapsed time: 0.062 seconds.

tnom = 27
temp = 27
method = trap
totiter = 1009
traniter = 0
tranpoints = 0
accept = 0
rejected = 0
matrix size = 14
fillins = 0
solver = Normal
Matrix Compiler1: 706 bytes object code size  0.1/0.1/[0.1]
Matrix Compiler2: 1.02 KB object code size  0.1/0.1/[0.1]

