Circuit: * C:\Users\duzun\OneDrive\Masaüstü\Fall 2T1\ECE 331 Analog Electronics\Lab 2\Circuits\NMOS_cs_w_PMOS_cm.asc

Model "ald1101": Oxide thickness thinner than recommended for a level 2 MOSFET.
Instance "m3": Length shorter than recommended for a level 2 MOSFET.
Model "ald1102": Oxide thickness thinner than recommended for a level 2 MOSFET.
Instance "m2": Length shorter than recommended for a level 2 MOSFET.
Instance "m1": Length shorter than recommended for a level 2 MOSFET.
Direct Newton iteration for .op point succeeded.

Date: Mon Oct 18 13:19:57 2021
Total elapsed time: 0.136 seconds.

tnom = 27
temp = 27
method = modified trap
totiter = 2092
traniter = 2083
tranpoints = 1042
accept = 1042
rejected = 0
matrix size = 14
fillins = 0
solver = Normal
Matrix Compiler1: 760 bytes object code size  0.4/0.3/[0.2]
Matrix Compiler2: 1.15 KB object code size  0.3/0.4/[0.3]

